# generated using pymatgen
data_Na17Zr10Si12(PO20)3
_symmetry_space_group_name_H-M   'P 1'
_cell_length_a   9.09921309
_cell_length_b   9.09921333
_cell_length_c   37.79190491
_cell_angle_alpha   90.53065897
_cell_angle_beta   96.51362598
_cell_angle_gamma   119.36578523
_symmetry_Int_Tables_number   1
_chemical_formula_structural   Na17Zr10Si12(PO20)3
_chemical_formula_sum   'Na34 Zr20 Si24 P6 O120'
_cell_volume   2701.72886043
_cell_formula_units_Z   2
loop_
 _symmetry_equiv_pos_site_id
 _symmetry_equiv_pos_as_xyz
  1  'x, y, z'
loop_
 _atom_site_type_symbol
 _atom_site_label
 _atom_site_symmetry_multiplicity
 _atom_site_fract_x
 _atom_site_fract_y
 _atom_site_fract_z
 _atom_site_occupancy
  Na  Na0  1  0.60000000  0.30000000  0.90000000  1
  Na  Na1  1  0.80000000  0.90000000  0.70000000  1
  Na  Na2  1  0.00000000  0.50000000  0.50000000  1
  Na  Na3  1  0.20000000  0.10000000  0.30000000  1
  Na  Na4  1  0.40000000  0.70000000  0.10000000  1
  Na  Na5  1  0.00000000  0.00000000  0.00000000  1
  Na  Na6  1  0.20000000  0.60000000  0.80000000  1
  Na  Na7  1  0.60000000  0.80000000  0.40000000  1
  Na  Na8  1  0.80000000  0.40000000  0.20000000  1
  Na  Na9  1  0.98826400  0.99413200  0.62206600  1
  Na  Na10  1  0.18826400  0.59413200  0.42206600  1
  Na  Na11  1  0.38826400  0.19413200  0.22206600  1
  Na  Na12  1  0.58826400  0.79413200  0.02206600  1
  Na  Na13  1  0.37206600  0.86619800  0.87793400  1
  Na  Na14  1  0.57206600  0.46619800  0.67793400  1
  Na  Na15  1  0.77206600  0.06619800  0.47793400  1
  Na  Na16  1  0.97206600  0.66619800  0.27793400  1
  Na  Na17  1  0.17206600  0.26619800  0.07793400  1
  Na  Na18  1  0.13967000  0.88967000  0.75000000  1
  Na  Na19  1  0.33967000  0.48967000  0.55000000  1
  Na  Na20  1  0.53967000  0.08967000  0.35000000  1
  Na  Na21  1  0.82793400  0.73380200  0.92206600  1
  Na  Na22  1  0.02793400  0.33380200  0.72206600  1
  Na  Na23  1  0.22793400  0.93380200  0.52206600  1
  Na  Na24  1  0.42793400  0.53380200  0.32206600  1
  Na  Na25  1  0.62793400  0.13380200  0.12206600  1
  Na  Na26  1  0.26033000  0.31033000  0.85000000  1
  Na  Na27  1  0.46033000  0.91033000  0.65000000  1
  Na  Na28  1  0.66033000  0.51033000  0.45000000  1
  Na  Na29  1  0.86033000  0.11033000  0.25000000  1
  Na  Na30  1  0.06033000  0.71033000  0.05000000  1
  Na  Na31  1  0.81173600  0.40586800  0.57793400  1
  Na  Na32  1  0.01173600  0.00586800  0.37793400  1
  Na  Na33  1  0.21173600  0.60586800  0.17793400  1
  Zr  Zr34  1  0.42337200  0.50606600  0.92943800  1
  Zr  Zr35  1  0.62337200  0.10606600  0.72943800  1
  Zr  Zr36  1  0.82337200  0.70606600  0.52943800  1
  Zr  Zr37  1  0.02337200  0.30606600  0.32943800  1
  Zr  Zr38  1  0.22337200  0.90606600  0.12943800  1
  Zr  Zr39  1  0.02337200  0.80606600  0.82943800  1
  Zr  Zr40  1  0.22337200  0.40606600  0.62943800  1
  Zr  Zr41  1  0.42337200  0.00606600  0.42943800  1
  Zr  Zr42  1  0.62337200  0.60606600  0.22943800  1
  Zr  Zr43  1  0.82337200  0.20606600  0.02943800  1
  Zr  Zr44  1  0.77662800  0.09393400  0.87056200  1
  Zr  Zr45  1  0.97662800  0.69393400  0.67056200  1
  Zr  Zr46  1  0.17662800  0.29393400  0.47056200  1
  Zr  Zr47  1  0.37662800  0.89393400  0.27056200  1
  Zr  Zr48  1  0.57662800  0.49393400  0.07056200  1
  Zr  Zr49  1  0.17662800  0.79393400  0.97056200  1
  Zr  Zr50  1  0.37662800  0.39393400  0.77056200  1
  Zr  Zr51  1  0.57662800  0.99393400  0.57056200  1
  Zr  Zr52  1  0.77662800  0.59393400  0.37056200  1
  Zr  Zr53  1  0.97662800  0.19393400  0.17056200  1
  Si  Si54  1  0.06364800  0.53182400  0.89091200  1
  Si  Si55  1  0.66364800  0.33182400  0.29091200  1
  Si  Si56  1  0.86364800  0.93182400  0.09091200  1
  Si  Si57  1  0.44091200  0.07273600  0.80908800  1
  Si  Si58  1  0.64091200  0.67273600  0.60908800  1
  Si  Si59  1  0.04091200  0.87273600  0.20908800  1
  Si  Si60  1  0.59544000  0.94544000  0.95000000  1
  Si  Si61  1  0.79544000  0.54544000  0.75000000  1
  Si  Si62  1  0.99544000  0.14544000  0.55000000  1
  Si  Si63  1  0.19544000  0.74544000  0.35000000  1
  Si  Si64  1  0.75908800  0.52726400  0.99091200  1
  Si  Si65  1  0.95908800  0.12726400  0.79091200  1
  Si  Si66  1  0.35908800  0.32726400  0.39091200  1
  Si  Si67  1  0.55908800  0.92726400  0.19091200  1
  Si  Si68  1  0.60456000  0.65456000  0.85000000  1
  Si  Si69  1  0.80456000  0.25456000  0.65000000  1
  Si  Si70  1  0.00456000  0.85456000  0.45000000  1
  Si  Si71  1  0.20456000  0.45456000  0.25000000  1
  Si  Si72  1  0.40456000  0.05456000  0.05000000  1
  Si  Si73  1  0.13635200  0.06817600  0.90908800  1
  Si  Si74  1  0.33635200  0.66817600  0.70908800  1
  Si  Si75  1  0.53635200  0.26817600  0.50908800  1
  Si  Si76  1  0.73635200  0.86817600  0.30908800  1
  Si  Si77  1  0.93635200  0.46817600  0.10908800  1
  P  P78  1  0.26364800  0.13182400  0.69091200  1
  P  P79  1  0.46364800  0.73182400  0.49091200  1
  P  P80  1  0.84091200  0.27273600  0.40908800  1
  P  P81  1  0.24091200  0.47273600  0.00908800  1
  P  P82  1  0.39544000  0.34544000  0.15000000  1
  P  P83  1  0.15908800  0.72726400  0.59091200  1
  O  O84  1  0.31460200  0.24708600  0.91353800  1
  O  O85  1  0.51460200  0.84708600  0.71353800  1
  O  O86  1  0.71460200  0.44708600  0.51353800  1
  O  O87  1  0.91460200  0.04708600  0.31353800  1
  O  O88  1  0.11460200  0.64708600  0.11353800  1
  O  O89  1  0.62561800  0.47643400  0.95437200  1
  O  O90  1  0.82561800  0.07643400  0.75437200  1
  O  O91  1  0.02561800  0.67643400  0.55437200  1
  O  O92  1  0.22561800  0.27643400  0.35437200  1
  O  O93  1  0.42561800  0.87643400  0.15437200  1
  O  O94  1  0.54830800  0.53986400  0.88400200  1
  O  O95  1  0.74830800  0.13986400  0.68400200  1
  O  O96  1  0.94830800  0.73986400  0.48400200  1
  O  O97  1  0.14830800  0.33986400  0.28400200  1
  O  O98  1  0.34830800  0.93986400  0.08400200  1
  O  O99  1  0.26645200  0.89893600  0.81353800  1
  O  O100  1  0.46645200  0.49893600  0.61353800  1
  O  O101  1  0.66645200  0.09893600  0.41353800  1
  O  O102  1  0.86645200  0.69893600  0.21353800  1
  O  O103  1  0.06645200  0.29893600  0.01353800  1
  O  O104  1  0.74413800  0.03569400  0.98400200  1
  O  O105  1  0.94413800  0.63569400  0.78400200  1
  O  O106  1  0.14413800  0.23569400  0.58400200  1
  O  O107  1  0.34413800  0.83569400  0.38400200  1
  O  O108  1  0.54413800  0.43569400  0.18400200  1
  O  O109  1  0.07793800  0.62875400  0.85437200  1
  O  O110  1  0.27793800  0.22875400  0.65437200  1
  O  O111  1  0.47793800  0.82875400  0.45437200  1
  O  O112  1  0.67793800  0.42875400  0.25437200  1
  O  O113  1  0.87793800  0.02875400  0.05437200  1
  O  O114  1  0.88539800  0.35291400  0.88646200  1
  O  O115  1  0.08539800  0.95291400  0.68646200  1
  O  O116  1  0.28539800  0.55291400  0.48646200  1
  O  O117  1  0.48539800  0.15291400  0.28646200  1
  O  O118  1  0.68539800  0.75291400  0.08646200  1
  O  O119  1  0.57438200  0.12356600  0.84562800  1
  O  O120  1  0.77438200  0.72356600  0.64562800  1
  O  O121  1  0.97438200  0.32356600  0.44562800  1
  O  O122  1  0.17438200  0.92356600  0.24562800  1
  O  O123  1  0.37438200  0.52356600  0.04562800  1
  O  O124  1  0.65169200  0.06013600  0.91599800  1
  O  O125  1  0.85169200  0.66013600  0.71599800  1
  O  O126  1  0.05169200  0.26013600  0.51599800  1
  O  O127  1  0.25169200  0.86013600  0.31599800  1
  O  O128  1  0.45169200  0.46013600  0.11599800  1
  O  O129  1  0.93354800  0.70106400  0.98646200  1
  O  O130  1  0.13354800  0.30106400  0.78646200  1
  O  O131  1  0.33354800  0.90106400  0.58646200  1
  O  O132  1  0.53354800  0.50106400  0.38646200  1
  O  O133  1  0.73354800  0.10106400  0.18646200  1
  O  O134  1  0.45586200  0.56430600  0.81599800  1
  O  O135  1  0.65586200  0.16430600  0.61599800  1
  O  O136  1  0.85586200  0.76430600  0.41599800  1
  O  O137  1  0.05586200  0.36430600  0.21599800  1
  O  O138  1  0.25586200  0.96430600  0.01599800  1
  O  O139  1  0.12206200  0.97124600  0.94562800  1
  O  O140  1  0.32206200  0.57124600  0.74562800  1
  O  O141  1  0.52206200  0.17124600  0.54562800  1
  O  O142  1  0.72206200  0.77124600  0.34562800  1
  O  O143  1  0.92206200  0.37124600  0.14562800  1
  O  O144  1  0.21969600  0.48331800  0.90617400  1
  O  O145  1  0.41969600  0.08331800  0.70617400  1
  O  O146  1  0.61969600  0.68331800  0.50617400  1
  O  O147  1  0.81969600  0.28331800  0.30617400  1
  O  O148  1  0.01969600  0.88331800  0.10617400  1
  O  O149  1  0.35420400  0.48052200  0.97482600  1
  O  O150  1  0.55420400  0.08052200  0.77482600  1
  O  O151  1  0.75420400  0.68052200  0.57482600  1
  O  O152  1  0.95420400  0.28052200  0.37482600  1
  O  O153  1  0.15420400  0.88052200  0.17482600  1
  O  O154  1  0.53493600  0.74251800  0.93419400  1
  O  O155  1  0.73493600  0.34251800  0.73419400  1
  O  O156  1  0.93493600  0.94251800  0.53419400  1
  O  O157  1  0.13493600  0.54251800  0.33419400  1
  O  O158  1  0.33493600  0.14251800  0.13419400  1
  O  O159  1  0.02285600  0.98647800  0.80617400  1
  O  O160  1  0.22285600  0.58647800  0.60617400  1
  O  O161  1  0.42285600  0.18647800  0.40617400  1
  O  O162  1  0.62285600  0.78647800  0.20617400  1
  O  O163  1  0.82285600  0.38647800  0.00617400  1
  O  O164  1  0.79167600  0.69925800  0.83419400  1
  O  O165  1  0.99167600  0.29925800  0.63419400  1
  O  O166  1  0.19167600  0.89925800  0.43419400  1
  O  O167  1  0.39167600  0.49925800  0.23419400  1
  O  O168  1  0.59167600  0.09925800  0.03419400  1
  O  O169  1  0.09430400  0.92062200  0.87482600  1
  O  O170  1  0.29430400  0.52062200  0.67482600  1
  O  O171  1  0.49430400  0.12062200  0.47482600  1
  O  O172  1  0.69430400  0.72062200  0.27482600  1
  O  O173  1  0.89430400  0.32062200  0.07482600  1
  O  O174  1  0.98030400  0.11668200  0.89382600  1
  O  O175  1  0.18030400  0.71668200  0.69382600  1
  O  O176  1  0.38030400  0.31668200  0.49382600  1
  O  O177  1  0.58030400  0.91668200  0.29382600  1
  O  O178  1  0.78030400  0.51668200  0.09382600  1
  O  O179  1  0.84579600  0.11947800  0.82517400  1
  O  O180  1  0.04579600  0.71947800  0.62517400  1
  O  O181  1  0.24579600  0.31947800  0.42517400  1
  O  O182  1  0.44579600  0.91947800  0.22517400  1
  O  O183  1  0.64579600  0.51947800  0.02517400  1
  O  O184  1  0.66506400  0.85748200  0.86580600  1
  O  O185  1  0.86506400  0.45748200  0.66580600  1
  O  O186  1  0.06506400  0.05748200  0.46580600  1
  O  O187  1  0.26506400  0.65748200  0.26580600  1
  O  O188  1  0.46506400  0.25748200  0.06580600  1
  O  O189  1  0.17714400  0.61352200  0.99382600  1
  O  O190  1  0.37714400  0.21352200  0.79382600  1
  O  O191  1  0.57714400  0.81352200  0.59382600  1
  O  O192  1  0.77714400  0.41352200  0.39382600  1
  O  O193  1  0.97714400  0.01352200  0.19382600  1
  O  O194  1  0.40832400  0.90074200  0.96580600  1
  O  O195  1  0.60832400  0.50074200  0.76580600  1
  O  O196  1  0.80832400  0.10074200  0.56580600  1
  O  O197  1  0.00832400  0.70074200  0.36580600  1
  O  O198  1  0.20832400  0.30074200  0.16580600  1
  O  O199  1  0.10569600  0.67937800  0.92517400  1
  O  O200  1  0.30569600  0.27937800  0.72517400  1
  O  O201  1  0.50569600  0.87937800  0.52517400  1
  O  O202  1  0.70569600  0.47937800  0.32517400  1
  O  O203  1  0.90569600  0.07937800  0.12517400  1
